Version 4
SHEET 1 880 680
WIRE 96 80 32 80
WIRE 224 80 176 80
WIRE 368 80 304 80
WIRE 432 80 368 80
WIRE 32 176 32 80
WIRE 368 192 368 80
WIRE 368 256 368 240
WIRE 32 304 32 256
WIRE 112 304 32 304
WIRE 368 304 368 256
WIRE 368 304 112 304
WIRE 432 304 368 304
WIRE 112 352 112 304
FLAG 112 352 0
SYMBOL res 192 64 R90
WINDOW 0 0 56 VBottom 2
WINDOW 3 32 56 VTop 2
SYMATTR InstName R1
SYMATTR Value 200
SYMBOL ind 320 64 R90
WINDOW 0 5 56 VBottom 2
WINDOW 3 32 56 VTop 2
SYMATTR InstName L1
SYMATTR Value 10m
SYMBOL cap 352 192 R0
SYMATTR InstName C1
SYMATTR Value 1µ
SYMBOL voltage 32 160 R0
WINDOW 123 24 124 Left 2
WINDOW 39 0 0 Left 0
SYMATTR InstName V1
SYMATTR Value SINE(0 5 50000 0 0 0 10)
TEXT -96 256 Left 2 !.tran 20m
