Version 4
SHEET 1 880 680
WIRE 160 80 16 80
WIRE 368 80 224 80
WIRE 368 128 368 80
WIRE 16 144 16 80
WIRE 16 288 16 224
WIRE 96 288 16 288
WIRE 368 288 368 208
WIRE 368 288 96 288
WIRE 96 320 96 288
FLAG 96 320 0
SYMBOL diode 160 96 R270
WINDOW 0 32 32 VTop 2
WINDOW 3 0 32 VBottom 2
SYMATTR InstName D1
SYMBOL res 352 112 R0
SYMATTR InstName R1
SYMATTR Value 1K
SYMBOL voltage 16 128 R0
WINDOW 123 0 0 Left 0
WINDOW 39 0 0 Left 0
SYMATTR InstName V1
SYMATTR Value 15
TEXT 56 184 Left 2 !.dc V1 0 2 0.02
