Version 4
SHEET 1 888 680
WIRE 608 -176 448 -176
WIRE 768 -176 688 -176
WIRE 448 -48 448 -176
WIRE 160 0 64 0
WIRE 384 0 240 0
WIRE 64 80 64 0
WIRE 768 80 768 -176
WIRE 64 352 64 160
WIRE 272 352 64 352
WIRE 448 352 448 48
WIRE 448 352 272 352
WIRE 768 352 768 160
WIRE 768 352 448 352
WIRE 272 416 272 352
FLAG 272 416 0
SYMBOL res 256 -16 R90
WINDOW 0 0 56 VBottom 2
WINDOW 3 32 56 VTop 2
SYMATTR InstName R1
SYMATTR Value 1K
SYMBOL npn 384 -48 R0
SYMATTR InstName Q1
SYMATTR Value 2N2222
SYMBOL res 704 -192 R90
WINDOW 0 0 56 VBottom 2
WINDOW 3 32 56 VTop 2
SYMATTR InstName R2
SYMATTR Value 100
SYMBOL voltage 64 64 R0
SYMATTR InstName V1
SYMATTR Value ""
SYMBOL voltage 768 64 R0
WINDOW 3 24 44 Left 2
WINDOW 123 0 0 Left 0
WINDOW 39 0 0 Left 0
SYMATTR InstName V2
SYMATTR Value 5
TEXT -32 -48 Left 2 ;V(n003)
TEXT 288 -72 Left 2 ;V(n004)
TEXT 344 -192 Left 2 ;V(n001)
TEXT 792 -168 Left 2 ;V(n002)
TEXT -216 104 Left 2 !.dc V1 0.65 1.6 0.01
TEXT -608 -184 Left 2 ;Ic vs Gain
